[General]

[Config MAP]
network = Map
sim-time-limit = 3600s
Map.Modena.**.sendInterval = exponential(10)
Map.Modena.**.serviceTime = exponential(13)
Map.Modena.percentuale_source = 100


[Config One_example]
network = MM1_network
MM1_network.nApps = 1
sim-time-limit = 3600s
MM1_network.MM1_net[0].source.sendInterval = exponential(10)
MM1_network.MM1_net[0].queue.serviceTime = exponential(13)

[Config Two_examples]
network = MM1_network
MM1_network.nApps = 2
sim-time-limit = 3600s
MM1_network.MM1_net[0].source.sendInterval = exponential(0.1)
MM1_network.MM1_net[0].queue.serviceTime = exponential(1)
MM1_network.MM1_net[1].source.sendInterval = exponential(0.1)
MM1_network.MM1_net[1].queue.serviceTime = exponential(10)

[Config less_packets]
network = MM1_network
MM1_network.nApps = 1
sim-time-limit = 3600s
MM1_network.MM1_net[0].source.sendInterval = exponential(10)
MM1_network.MM1_net[0].queue.serviceTime = exponential(1)




