[General]
network = Map
sim-time-limit = 3600s
Map.Modena.**.sendInterval = exponential(1)
Map.Modena.**.serviceTime = exponential(0.002)
Map.Modena.subsampling_database = "simulations/databases/PercSource_20.db"
