[General]
network = Map
sim-time-limit = 3600s
Map.Modena.**.sendInterval = exponential(10)
Map.Modena.**.serviceTime = exponential(13)
Map.Modena.subsampling_database = "simulations/databases/PercSource_1.db"
